Version 4
SHEET 1 2488 1056
WIRE 656 16 272 16
WIRE 848 16 656 16
WIRE 848 64 848 16
WIRE 272 80 272 16
WIRE 656 96 656 16
WIRE 848 256 848 144
WIRE 928 256 848 256
WIRE 976 256 928 256
WIRE 1120 256 1040 256
WIRE 272 272 272 160
WIRE 352 272 272 272
WIRE 400 272 352 272
WIRE 544 272 464 272
WIRE 848 352 848 256
WIRE 272 368 272 272
WIRE 1024 368 960 368
WIRE 1120 368 1120 256
WIRE 1120 368 1104 368
WIRE 448 384 384 384
WIRE 544 384 544 272
WIRE 544 384 528 384
WIRE 656 528 656 176
WIRE 848 528 848 416
WIRE 848 528 656 528
WIRE 960 528 960 368
WIRE 960 528 848 528
WIRE 1200 528 960 528
WIRE 272 544 272 432
WIRE 384 544 384 384
WIRE 384 544 272 544
WIRE 384 560 384 544
WIRE 1200 560 1200 528
FLAG 1120 256 BL
FLAG 928 256 dd
FLAG 1200 560 0
FLAG 544 272 BL0
FLAG 352 272 dd0
FLAG 384 560 0
SYMBOL voltage 656 80 M0
WINDOW 123 0 0 Left 2
WINDOW 39 0 0 Left 2
WINDOW 3 -65 113 Left 2
SYMATTR Value 168
SYMATTR InstName V1
SYMBOL cap 832 352 R0
SYMATTR InstName C3
SYMATTR Value 22n
SYMBOL res 864 160 R180
WINDOW 0 36 76 Left 2
WINDOW 3 36 40 Left 2
SYMATTR InstName R1
SYMATTR Value 660K
SYMBOL res 1120 384 M270
WINDOW 0 32 56 VTop 2
WINDOW 3 0 56 VBottom 2
SYMATTR InstName R5
SYMATTR Value 10
SYMBOL cap 256 368 R0
SYMATTR InstName C1
SYMATTR Value 2.2n
SYMBOL res 288 176 R180
WINDOW 0 36 76 Left 2
WINDOW 3 36 40 Left 2
SYMATTR InstName R2
SYMATTR Value 6600K
SYMBOL res 544 400 M270
WINDOW 0 32 56 VTop 2
WINDOW 3 0 56 VBottom 2
SYMATTR InstName R3
SYMATTR Value 10
SYMBOL DB3 464 240 R90
WINDOW 0 0 32 Invisible 2
WINDOW 38 -55 18 Left 2
SYMATTR InstName U1
SYMBOL DB3 1040 224 R90
WINDOW 0 0 32 Invisible 2
WINDOW 38 -57 34 Left 2
SYMATTR InstName U2
TEXT 696 -48 Left 2 !.tran 20m startup
