Version 4
SHEET 1 1248 696
WIRE 448 80 432 80
WIRE 624 80 528 80
WIRE 640 80 624 80
WIRE 736 80 640 80
WIRE 640 112 640 80
WIRE 432 144 432 80
WIRE 736 144 736 80
WIRE 640 192 640 176
WIRE 736 256 736 208
WIRE 640 304 640 272
FLAG 640 304 0
FLAG 624 80 ref
FLAG 432 224 0
FLAG 736 256 0
SYMBOL res 432 64 M90
WINDOW 0 5 56 VBottom 2
WINDOW 3 27 56 VTop 2
SYMATTR InstName R2
SYMATTR Value 150k
SYMBOL voltage 432 128 R0
SYMATTR InstName V2
SYMATTR Value sin 0 50 1
SYMBOL cap 720 144 R0
SYMATTR InstName C4
SYMATTR Value 220n
SYMBOL res 624 176 R0
SYMATTR InstName R3
SYMATTR Value 20
SYMBOL DB3 608 112 R0
WINDOW 0 48 0 Invisible 2
WINDOW 38 50 -6 Left 2
WINDOW 123 -94 -81 Left 2
WINDOW 39 57 -52 Left 2
SYMATTR InstName U1
TEXT 448 304 Left 2 !.tran 2
