Version 4
SHEET 1 2488 1056
WIRE 224 16 -16 16
WIRE 224 64 224 16
WIRE -16 160 -16 16
WIRE 224 192 224 144
WIRE 272 192 224 192
WIRE 320 192 272 192
WIRE 448 192 384 192
WIRE 224 256 224 192
WIRE 448 256 448 192
WIRE -16 384 -16 240
WIRE 224 384 224 320
WIRE 224 384 -16 384
WIRE 448 384 448 336
WIRE 448 384 224 384
WIRE -16 416 -16 384
FLAG 448 192 BL0
FLAG 272 192 dd0
FLAG -16 416 0
FLAG -16 16 VS
SYMBOL voltage -16 144 R0
WINDOW 123 0 0 Left 2
WINDOW 39 0 0 Left 2
WINDOW 3 20 98 Left 2
SYMATTR Value SINE(0 60 50)
SYMATTR InstName V1
SYMBOL cap 208 256 R0
SYMATTR InstName C1
SYMATTR Value {c}
SYMBOL res 208 48 R0
SYMATTR InstName R2
SYMATTR Value 51k
SYMBOL res 432 240 R0
SYMATTR InstName R3
SYMATTR Value 10
SYMBOL DB3 384 160 R90
WINDOW 0 0 32 Invisible 2
WINDOW 38 -55 18 Left 2
SYMATTR InstName U1
TEXT -16 -56 Left 2 !.tran 0 40m 20m startup
TEXT 232 -16 Left 2 !.step param c list  1n 2n  10n 47n 100n
