Version 4
SHEET 1 1248 696
WIRE 448 80 432 80
WIRE 624 80 528 80
WIRE 640 80 624 80
WIRE 736 80 640 80
WIRE 640 112 640 80
WIRE 432 144 432 80
WIRE 736 144 736 80
WIRE 640 224 640 176
WIRE 736 256 736 208
WIRE 640 272 640 224
WIRE 640 416 640 352
FLAG 640 416 0
FLAG 624 80 ref
FLAG 432 224 0
FLAG 736 256 0
FLAG 640 224 x
SYMBOL res 432 64 M90
WINDOW 0 5 56 VBottom 2
WINDOW 3 27 56 VTop 2
SYMATTR InstName R2
SYMATTR Value 350k
SYMBOL voltage 432 128 R0
WINDOW 123 0 0 Left 2
WINDOW 39 0 0 Left 2
WINDOW 3 -57 135 Left 2
SYMATTR Value SINE(0 {220*1.41} 50)
SYMATTR InstName V2
SYMBOL cap 720 144 R0
SYMATTR InstName C4
SYMATTR Value 100n
SYMBOL res 624 256 R0
SYMATTR InstName R3
SYMATTR Value 20
SYMBOL DB3 608 112 R0
WINDOW 0 48 0 Invisible 2
WINDOW 38 50 -6 Left 2
WINDOW 123 -94 -81 Left 2
WINDOW 39 61 -49 Left 2
SYMATTR InstName U1
TEXT 440 328 Left 2 !.tran 6m
TEXT 944 168 Left 2 !.meas mm max i(R3)
TEXT 936 208 Left 2 !.meas t1 when i(r3)=0.1*mm
TEXT 936 248 Left 2 !.meas t2 when i(r3)=0.9*mm
TEXT 944 288 Left 2 !.meas tr param t2-t1
TEXT 944 96 Left 2 !.opt plotwinsize=0
