Version 4
SHEET 1 1284 696
WIRE 464 80 448 80
WIRE 576 80 544 80
WIRE 592 80 576 80
WIRE 688 80 592 80
WIRE 592 112 592 80
WIRE 688 112 688 80
WIRE 448 144 448 80
WIRE 592 192 592 176
WIRE 688 192 688 176
WIRE 448 336 432 336
WIRE 560 336 528 336
WIRE 576 336 560 336
WIRE 672 336 576 336
WIRE 576 368 576 336
WIRE 672 368 672 336
WIRE 432 400 432 336
WIRE 576 448 576 432
WIRE 672 448 672 432
FLAG 592 192 0
FLAG 576 80 ref
FLAG 448 224 0
FLAG 688 192 0
FLAG 576 448 0
FLAG 560 336 ref2
FLAG 432 480 0
FLAG 672 448 0
SYMBOL res 448 64 M90
WINDOW 0 5 56 VBottom 2
WINDOW 3 27 56 VTop 2
SYMATTR InstName R2
SYMATTR Value 300k
SYMBOL voltage 448 128 R0
WINDOW 123 0 0 Left 2
WINDOW 39 0 0 Left 2
SYMATTR InstName V2
SYMATTR Value 50
SYMBOL cap 672 112 R0
SYMATTR InstName C4
SYMATTR Value {c}
SYMBOL DB3 560 112 R0
WINDOW 0 48 0 Invisible 2
WINDOW 38 50 -6 Left 2
WINDOW 123 -126 -80 Left 2
WINDOW 39 43 -52 Left 2
SYMATTR InstName U1
SYMBOL res 432 320 M90
WINDOW 0 5 56 VBottom 2
WINDOW 3 27 56 VTop 2
SYMATTR InstName R1
SYMATTR Value 50k
SYMBOL voltage 432 384 R0
WINDOW 123 0 0 Left 2
WINDOW 39 0 0 Left 2
SYMATTR InstName V1
SYMATTR Value 50
SYMBOL cap 656 368 R0
SYMATTR InstName C1
SYMATTR Value {c}
SYMBOL DB3 544 368 R0
WINDOW 0 48 0 Invisible 2
WINDOW 38 50 -6 Left 2
SYMATTR InstName U2
TEXT 608 304 Left 2 !.tran 20m
TEXT 432 256 Left 2 !.step param c list 1n 10n 47n 100n
