Version 4
SHEET 1 4432 680
WIRE 1728 -304 1440 -304
WIRE 1728 -256 1728 -304
WIRE 1440 -224 1440 -304
WIRE 1440 -80 1440 -144
WIRE 1504 -80 1440 -80
WIRE 1552 -80 1504 -80
WIRE 1552 -32 1552 -80
WIRE 1440 48 1440 -80
WIRE 1440 48 1408 48
WIRE 1440 144 1408 144
WIRE 1440 160 1440 144
WIRE 1440 256 1440 240
FLAG 1440 256 0
FLAG 1728 -176 0
FLAG 1552 32 0
FLAG 1504 -80 A
SYMBOL res 1424 -240 R0
SYMATTR InstName R2
SYMATTR Value 1000k
SYMBOL voltage 1728 -272 R0
WINDOW 123 0 0 Left 2
WINDOW 39 0 0 Left 2
SYMATTR InstName V1
SYMATTR Value 170
SYMBOL cap 1536 -32 R0
SYMATTR InstName C1
SYMATTR Value 22n
SYMBOL res 1424 144 R0
SYMATTR InstName R3
SYMATTR Value 10
SYMBOL DB3_Avalanche 1376 96 R0
SYMATTR InstName X1
TEXT 1248 296 Left 2 !.tran 0 10m 1u uic
