Version 4
SHEET 1 880 708
WIRE -64 128 -112 128
WIRE 16 128 0 128
WIRE 128 128 96 128
WIRE 160 128 128 128
WIRE 256 128 224 128
WIRE 256 144 256 128
WIRE 128 160 128 128
WIRE -112 192 -112 128
WIRE 256 224 256 208
WIRE -112 304 -112 272
WIRE 128 304 128 224
WIRE 128 304 -112 304
WIRE 256 304 128 304
WIRE 256 320 256 304
FLAG 256 320 0
SYMBOL LED 240 144 R0
SYMATTR InstName D1
SYMATTR Value LedRed
SYMATTR Description Diode
SYMATTR Type diode
SYMBOL res 240 208 R0
SYMATTR InstName R1
SYMATTR Value 220
SYMBOL cap 112 160 R0
SYMATTR InstName C1
SYMATTR Value 10µ ic=29
SYMBOL res 112 112 R90
WINDOW 0 0 56 VBottom 2
WINDOW 3 32 56 VTop 2
SYMATTR InstName R2
SYMATTR Value 22k
SYMBOL diode -64 144 R270
WINDOW 0 32 32 VTop 2
WINDOW 3 0 32 VBottom 2
SYMATTR InstName D2
SYMATTR Value 1N4007
SYMBOL voltage -112 176 R0
WINDOW 123 0 0 Left 2
WINDOW 39 0 0 Left 2
WINDOW 3 -64 102 Left 2
SYMATTR Value SINE(0 {230*1.4142} 50)
SYMATTR InstName V1
SYMBOL DB3 224 96 R90
WINDOW 0 0 32 Invisible 2
WINDOW 38 -24 2 Left 2
SYMATTR InstName U1
TEXT -144 344 Left 2 !.tran 150m
TEXT -208 376 Left 2 !.MODEL LedRed D (IS=93.2P RS=42M N=3.73 BV=4 IBV=10U\n+ CJO=2.97P VJ=.75 M=.333 TT=4.32U Iave=40m Vpk=4 type=LED)
TEXT -216 456 Left 2 !.model 1N4007 D IS=7.02767n RS=0.0341512 N=1.80803 EG=1.05743 XTI=5 \n+ BV=1000 IBV=5e-08 CJO=1e-11 VJ=0.7 M=0.5 FC=0.5 TT=1e-07
