Version 4
SHEET 1 2488 1056
WIRE 336 272 272 272
WIRE 416 272 400 272
WIRE 272 304 272 272
WIRE 272 416 272 384
FLAG 272 416 0
FLAG 272 272 X
FLAG 416 272 0
SYMBOL DB3 400 240 R90
WINDOW 0 0 32 Invisible 2
WINDOW 38 -55 18 Left 2
WINDOW 123 -57 72 Left 2
WINDOW 39 -56 103 Left 2
SYMATTR InstName U1
SYMBOL current 272 384 R180
WINDOW 0 24 80 Left 2
WINDOW 3 24 0 Left 2
WINDOW 123 0 0 Left 2
WINDOW 39 0 0 Left 2
SYMATTR InstName I1
SYMATTR Value 1µ
TEXT 368 352 Left 2 !.dc dec i1 0.1u 10m 500
