Version 4
SHEET 1 880 680
WIRE 128 32 -48 32
WIRE 416 32 128 32
WIRE 128 48 128 32
WIRE -48 96 -48 32
WIRE 416 144 416 32
WIRE 416 144 368 144
WIRE 128 160 128 128
WIRE 176 160 128 160
WIRE 416 176 368 176
WIRE 176 224 144 224
WIRE 416 240 368 240
WIRE -48 304 -48 176
WIRE 144 304 144 224
WIRE 416 304 416 240
FLAG -48 304 0
FLAG 144 304 0
FLAG 416 304 0
SYMBOL ACS712 272 192 R0
SYMATTR InstName U1
SYMBOL voltage -48 80 R0
SYMATTR InstName V1
SYMATTR Value {V}
SYMBOL res 112 32 R0
SYMATTR InstName R1
SYMATTR Value 1
TEXT -80 336 Left 2 !.step param V LIST 1 2 2.5 3 4
TEXT -80 360 Left 2 !.tran 100
