Version 4
SHEET 1 1848 680
WIRE 176 112 176 -48
WIRE 352 112 352 -48
WIRE 752 112 752 -48
WIRE 880 112 880 -48
WIRE 1136 112 1136 -48
WIRE 528 128 528 -48
WIRE 624 128 624 -48
WIRE 1024 128 1024 -48
WIRE 1088 128 1024 128
WIRE 1280 128 1280 -48
WIRE 1424 128 1424 -48
WIRE 1632 128 1632 -48
WIRE 1520 144 1520 -48
WIRE 1584 144 1520 144
WIRE 1792 144 1792 -48
WIRE 1088 176 1024 176
WIRE 1584 192 1520 192
WIRE 176 304 176 192
WIRE 352 304 352 192
WIRE 528 304 528 160
WIRE 624 304 624 160
WIRE 752 304 752 192
WIRE 880 304 880 192
WIRE 1024 304 1024 176
WIRE 1136 304 1136 192
WIRE 1280 304 1280 192
WIRE 1424 304 1424 208
WIRE 1520 304 1520 192
WIRE 1632 304 1632 208
WIRE 1792 304 1792 224
FLAG 176 -48 I+
FLAG 176 304 I-
FLAG 352 -48 V-
FLAG 352 304 2
FLAG 528 -48 1
FLAG 624 -48 2
FLAG 528 304 V-
FLAG 624 304 V-
FLAG 752 -48 2
FLAG 752 304 V-
FLAG 880 -48 FILTER
FLAG 880 304 2
FLAG 1024 -48 FILTER
FLAG 1024 304 V-
FLAG 1136 304 V-
FLAG 1136 -48 3
FLAG 1280 -48 3
FLAG 1280 304 V-
FLAG 1424 304 3
FLAG 1424 -48 Out
FLAG 1520 304 V-
FLAG 1520 -48 V+
FLAG 1632 304 V-
FLAG 1632 -48 3
FLAG 1792 -48 V+
FLAG 1792 304 V-
SYMBOL voltage 176 96 R0
SYMATTR InstName V1
SYMATTR Value 0
SYMBOL f 352 112 R0
WINDOW 123 24 108 Left 2
SYMATTR Value2 {gain}
SYMATTR InstName F1
SYMATTR Value V1
SYMBOL tline 576 144 R0
SYMATTR InstName T1
SYMATTR Value Td=1u Z0=1
SYMBOL res 736 96 R0
SYMATTR InstName R1
SYMATTR Value 1
SYMBOL res 864 96 R0
SYMATTR InstName R2
SYMATTR Value 1K7
SYMBOL g 1136 96 R0
SYMATTR InstName G1
SYMATTR Value 1
SYMBOL cap 1264 128 R0
SYMATTR InstName C1
SYMATTR Value 1µ3
SYMATTR SpiceLine Rpar=1
SYMBOL res 1408 112 R0
SYMATTR InstName R3
SYMATTR Value 50
SYMBOL g 1632 112 R0
SYMATTR InstName G2
SYMATTR Value 0.5
SYMBOL res 1776 128 R0
SYMATTR InstName R4
SYMATTR Value 2K
TEXT 336 -200 Left 2 !.subckt ACS712 I+ I- Filter Out V+ V-\n.param gain=185m; 185m -05B, 100m -20A, 66m -30A
